<?xml version="1.0" encoding="UTF-8"?>

<configuration xmlns:xsi="http://www.w3.org/2001/XMLSchema-instance" xsi:noNamespaceSchemaLocation="http://sumo.dlr.de/xsd/sumoConfiguration.xsd">

    <input>
        <net-file value="test.net.xml"/>
        <route-files value="test.rou.xml"/>
        <additional-files value="test.poly.xml"/>
    </input>

    <time>
        <begin value="0"/>
        <end value="200"/>
        <!--step-length value="1"/-->
    </time>

    <report>
        <xml-validation value="never"/>
        <xml-validation.net value="never"/>
        <!--no-step-log value="true"/-->
    </report>

    <gui_only>
        <start value="true"/>
    </gui_only>

</configuration>
