<?xml version="1.0" encoding="UTF-8"?>

<!-- generated on Mon Apr  8 00:31:53 2019 by Eclipse SUMO duarouter Version 1.1.0
<configuration xmlns:xsi="http://www.w3.org/2001/XMLSchema-instance" xsi:noNamespaceSchemaLocation="http://sumo.dlr.de/xsd/duarouterConfiguration.xsd">

    <input>
        <net-file value="test.net.xml"/>
        <route-files value="trips.trips.xml"/>
    </input>

    <output>
        <output-file value="test.rou.xml"/>
        <alternatives-output value="test.rou.alt.xml"/>
    </output>

    <time>
        <begin value="0"/>
        <end value="200.0"/>
    </time>

    <report>
        <no-warnings value="true"/>
        <ignore-errors value="true"/>
        <no-step-log value="true"/>
    </report>

</configuration>
-->

<routes xmlns:xsi="http://www.w3.org/2001/XMLSchema-instance" xsi:noNamespaceSchemaLocation="http://sumo.dlr.de/xsd/routes_file.xsd">
    <vehicle id="0" depart="0.00">
        <route edges="28801594 -28801546#2 -28801546#1 -28801546#0 -28801020#0 28800976#0 28800976#1 472040958#15 -421426727#3 -421426727#2 -421426727#1 -421426727#0 193783816#1 193783816#2 193783816#3 193783816#4 193783816#5 193783816#6 193783816#7 193783816#8 193783816#9 193783816#10 193783816#11 193783816#12 28785007 28785002#4 28785002#5 28785002#6 28785002#7 28785002#0 131765652 -28783631#7 -28783631#6 -28783631#5 -28783631#4 -28783631#3 -28783631#2 -28783631#1 -28783631#0 -628138884#5 -628138884#4 -28785343#4 -28785343#3 28789844#0 28789844#1 28789844#2 28789844#3 28789844#4 421428184#0"/>
    </vehicle>
    <vehicle id="1" depart="1.00">
        <route edges="-28800046 28800046 472040958#12 472040958#13 472040958#14 -28800976#1 -28800976#0 -28799999#7 -28799999#6 -28799999#5 28800988#1 28800988#2 28800988#3 28800988#4 28800988#5 -28801508#4 -28801508#3 -28801508#2 -28801508#1 -28801508#0 28801443#3 28801443#4 28801443#5 28801443#6 -28801443#6"/>
    </vehicle>
    <vehicle id="2" depart="2.00">
        <route edges="-472039798 28791832#7 28791832#8 28791832#9 28791832#10 28791832#11 28791832#12 472040959#2 -472040962 472040956#0 472040956#1 472040956#2 472040956#3 131765643#1 131765643#2 131765643#3 131765643#4 131765643#5 131765643#6 131765643#7 131765643#8 131765643#9 131765643#10 131765643#11 131765643#12 131765643#13 131765643#14 131765643#15 131765643#16 131765643#17"/>
    </vehicle>
    <vehicle id="3" depart="3.00">
        <route edges="28801513#1 28801508#2 28801508#3 28801508#4 -28800988#5 -28800988#4 -28800988#3 -28800988#2 -28800988#1 28799999#5 28799999#6 28799999#7 28800976#0 28800976#1 472040958#15 -421426727#3 -421426727#2 -421426727#1 -421426727#0 193783816#1 193783816#2 193783816#3 193783816#4 193783816#5 193783816#6 193783816#7 193783816#8 193783816#9 193783816#10 193783816#11 193783816#12 28785007 28785002#4 28785002#5 28785002#6 28785002#7 28785002#0 131765652 -28783631#7 -28783631#6 -28783631#5 -28783631#4 -28783631#3 -28783631#2 -28783631#1 -28783631#0 -628138884#5 -628138884#4 -28785343#4 -102119729#11 -102119729#10 -102119729#9 -102119729#8 -102119729#7 -102119729#6 -102119729#5 -28786733#8 -28786733#7 -28786733#6 -28786733#5 28786733#5"/>
    </vehicle>
    <vehicle id="4" depart="4.00">
        <route edges="28800697#7 -28800697#7 28800641#3 28800641#4 28800641#5 28800641#6 28800641#7 28800641#8 28800641#9 28800641#10 -131765643#15 -131765643#14 -131765643#13 28791454#0 -197963881#0 -28783622#5 -28783622#4 -28783622#3 -28783622#2 -28783622#1 -28783622#0 28785181#2 28785181#3 28785181#4 -28783598 28701468#2 28786078#0 28786078#1 28786078#2 28786078#3 28786078#4 28786078#5 28786078#6 28786078#7"/>
    </vehicle>
    <vehicle id="5" depart="5.00">
        <route edges="-28801508#3 -28801508#2 28801513#2"/>
    </vehicle>
    <vehicle id="6" depart="6.00">
        <route edges="-421426726#0 28800641#4 28800641#5 28800641#6 28800641#7 28800641#8 28800641#9 28800641#10 -131765643#15 -131765643#14 -131765643#13 -131765643#12 -131765643#11 -131765643#10 -131765643#9 -131765643#8 -131765643#7 -131765643#6 -131765643#5 -131765643#4 -131765643#3 -131765643#2 -131765643#1 -131765643#0 28785007 28785002#4 28785002#5 28785002#6 28785002#7 28785002#0 131765652 -28783631#7 -28783631#6 -28783631#5 -28783631#4 -28783631#3 -28783631#2 -28783631#1 -28783631#0 -628138884#5 -628138884#4 -28785343#4 -28785343#3 28789844#0 28789844#1 28789844#2 28789844#3 28789844#4 421428184#0"/>
    </vehicle>
    <vehicle id="7" depart="7.00">
        <route edges="28801647#0 -28801647#0 -423409627#2 28801577#5 -28801020#2 -28801020#1 -28801020#0 28800976#0 28800976#1 -472040958#14 -472040958#13 -472040958#12 -472040958#11 -472040958#10 -472040958#9 -472040958#8 -472040958#7 -472040958#6 -472040958#5 -472040958#4 -472040958#3 472040958#3"/>
    </vehicle>
    <vehicle id="8" depart="8.00">
        <route edges="102119729#8 -102119729#8 -102119729#7 -102119729#6 -28701466#4 -28701466#3 -28701466#2 -28701466#1 -28701466#0 28701516 28701451#0 28701451#1 28701451#2 478821996"/>
    </vehicle>
    <vehicle id="9" depart="9.00">
        <route edges="-197961406#1 -197961406#0 -197992365#0 -28800697#12 -28800697#11 28800697#11"/>
    </vehicle>
    <vehicle id="10" depart="10.00">
        <route edges="-193783816#1 -193783816#0 -627606612#3 -472040958#19 -472040958#18 -472040958#17 -472040958#16 -472040958#15 -28800976#1 -28800976#0 28801020#0 28801020#1"/>
    </vehicle>
    <vehicle id="11" depart="11.00">
        <route edges="-28801483#2 28801542#1 28801510#1 28801510#2 -423409624#0 28801508#3 28801508#4 28800988#6 28800988#7 28800988#8 -28801609#1 28801611"/>
    </vehicle>
    <vehicle id="12" depart="12.00">
        <route edges="28800023#2 28800023#3 28800023#4 28800028#1 28800028#2 472040958#9 472040958#10 472040958#11 472040958#12 472040958#13 472040958#14 -28800976#1 -28800976#0 -28799999#7 -28799999#6 -28799999#5 -28799999#4 28801405#3 28801405#4 -28801405#4"/>
    </vehicle>
    <vehicle id="13" depart="13.00">
        <route edges="28701466#6 -28789844#2 -28789844#1 -28789844#0 28785343#3 28785343#4 628138884#4 628138884#5 28783631#0 28783631#1 28783631#2 28783631#3 28783631#4 28783631#5 28783631#6 28783631#7 28785028 28785002#2 28783632 -193783816#12 -193783816#11 -193783816#10 -193783816#9 -193783816#8 -28800012#6 -28801022#8 28800026#0 28800026#1 -472040958#9 -28800028#2"/>
    </vehicle>
    <vehicle id="14" depart="14.00">
        <route edges="-28801404#6 -28801404#5 -28801404#4 -28801404#3 28799999#1 28799999#2 28799999#3 28799999#4 28799999#5 28799999#6 28799999#7 28800976#0 28800976#1 -472040958#14 -472040958#13 -472040958#12 -472040958#11 -472040958#10 -472040958#9 -28800028#2 -28800028#1 -28800023#4 -28800023#3 -28800023#2 -28800023#1 -28800023#0 28800202#3 28800202#4 28800202#5 -472040167#2 -472040167#1 -472040167#0 472040959#0 -472040168 -28791833 -28791832#11 -28791832#10 -28791832#9 -28791832#8 -28791832#7 -28791832#6 -28791832#5 -28791832#4 -28791832#3"/>
    </vehicle>
    <vehicle id="15" depart="15.00">
        <route edges="28800073#1 472040958#8 472040958#9 472040958#10 472040958#11 472040958#12 472040958#13 472040958#14 -28800976#1 -28800976#0 -28799999#7 -28799999#6 -28799999#5 28800988#1 28800988#2 28800988#3 28800988#4 28800988#5 -28801508#4 -28801508#3"/>
    </vehicle>
    <vehicle id="16" depart="16.00">
        <route edges="-28801404#6 -28801404#5 -28801404#4 -28801404#3 28799999#1 28799999#2 28799999#3 28799999#4 28799999#5 28799999#6 28799999#7 28800976#0 28800976#1 472040958#15 -421426727#3 -421426727#2 -421426727#1 -421426727#0 193783816#1 193783816#2 193783816#3 193783816#4 193783816#5 193783816#6 193783816#7 193783816#8 193783816#9 193783816#10 193783816#11 193783816#12 28785007 28785002#4 28785002#5 28785002#6 28785002#7 28785002#0 131765652 -28783631#7 -28783631#6 -28783631#5 203680503#0 203680503#1 203680503#2 203680503#3 627600383#0 627600383#1 627600383#2 627600383#3 -627600383#3"/>
    </vehicle>
    <vehicle id="17" depart="17.00">
        <route edges="-472040963 -28801022#10 -28801022#9 -28801022#8 -28801022#7 -28801022#6 -28801022#5 -28801022#4 -28801022#3 -28801022#2 -28801022#1 -28801022#0 -28800976#1 -28800976#0 -28799999#7 -28799999#6 -28799999#5 -28799999#4 -28799999#3 28799999#3"/>
    </vehicle>
    <vehicle id="18" depart="18.00">
        <route edges="28783622#4 -28783622#4 -28783622#3 -28783622#2 -28783622#1 -28783622#0 28785181#2 -628138882#1 -628138882#0 628138887 -628138884#7 -628138884#6 -628138884#5 -628138884#4 -28785343#4 -28785343#3 28789844#0 28789844#1 28789844#2 28789844#3 28789844#4 28789844#5 28789844#6 -28789844#6"/>
    </vehicle>
    <vehicle id="19" depart="19.00">
        <route edges="-422160340 -28783578#5 -28783578#4 -28783578#3 -28783578#2 -28783578#1 -28783578#0 131765643#7 131765643#8 -28801024#5 -28801024#4 -28801024#3 -28801024#2 -28801024#1 -28801024#0 627606612#1 627606612#2 -472040958#19 -472040958#18 -472040958#17 -472040958#16 -421426727#3"/>
    </vehicle>
    <vehicle id="20" depart="20.00">
        <route edges="-202995375#1 -202995375#0 -28800771#0 -28800701#2 -28800701#1 -28800701#0 28801024#3 28801024#4 28801024#5 -131765643#8 -131765643#7 -131765643#6 -131765643#5 -131765643#4 -131765643#3 -131765643#2 -131765643#1 -131765643#0 28785007 28785002#4 28785002#5 28785002#6 28785002#7 28785002#0 131765652 -28783631#7 -28783631#6 -28783631#5 -28783631#4 -28783631#3 -28783631#2 -28783631#1 -28783631#0 -628138884#5 -628138884#4 -28785343#4 -28785343#3 28789844#0 28789844#1 28789844#2 -28789844#2"/>
    </vehicle>
    <vehicle id="21" depart="21.00">
        <route edges="-102119729#5 102119729#5 102119729#6 102119729#7 102119729#8 102119729#9 102119729#10 102119729#11 28785343#4 628138884#4 628138884#5 28783631#0 28783631#1 28783631#2 28783631#3 28783631#4 28783631#5 28783631#6 28783631#7 28785028 28785002#2 28783632 -193783816#12 -193783816#11 -193783816#10 -193783816#9 -193783816#8 -193783816#7 -193783816#6 -193783816#5 -193783816#4 -193783816#3 -193783816#2 -193783816#1 421426727#0 421426727#1"/>
    </vehicle>
    <vehicle id="22" depart="22.00">
        <route edges="627606597#1 627606597#2 627606598#0 627606600#0 627606600#1 627606600#2 -28783631#5 -28783631#4 -28783631#3 -28783631#2 -28783631#1 -28783631#0 -628138884#5 -628138884#4 -628138884#3 -628138888 628138883#0 628138883#1 628138883#2 628138883#3 -28701466#1 -28701466#0 28701516 28701451#0 28701451#1 478806971 -28701464#7 -28803632#5 -28803632#4 -28803632#3 -28803632#2 -28803632#1 -28803632#0 28803607#5 28803607#6"/>
    </vehicle>
    <vehicle id="23" depart="23.00">
        <route edges="-28800697#11 28800697#11 28800697#12 197992365#0 197961406#0 197961406#1 197961406#2 -28800701#1 -28800701#0 28801024#3 28801024#4 28801024#5 -131765643#8 -131765643#7 -131765643#6 -131765643#5 -131765643#4 -131765643#3 -131765643#2 -131765643#1 -131765643#0 28785007 28785002#4 28785002#5 28785002#6 28785002#7 28785002#0 131765652 -28783631#7 -28783631#6 -28783631#5 -28783631#4 -28783631#3 -28783631#2 -28783631#1 -28783631#0 -628138884#5 -628138884#4 -28785343#4 -102119729#11 -102119729#10 -102119729#9 -102119729#8 -102119729#7 -102119729#6 -102119729#5 -102119729#4 102119729#4"/>
    </vehicle>
    <vehicle id="24" depart="24.00">
        <route edges="28801577#3 28801577#4 28801577#5 -28801020#2 -28801020#1 -28801020#0 28800976#0 28800976#1 472040958#15 -421426727#3 -421426727#2 -421426727#1 -421426727#0 193783816#1 193783816#2 193783816#3 193783816#4 193783816#5 193783816#6 193783816#7 193783816#8 193783816#9 193783816#10 193783816#11 193783816#12 28785007 28785002#4 28785002#5 28785002#6 28785002#7 28785002#0 131765652 -28783631#7 -28783631#6 -28783631#5 -28783631#4 -28783631#3 -28783631#2 -498228908#1 -498228908#0 498228422#2"/>
    </vehicle>
    <vehicle id="25" depart="25.00">
        <route edges="28800866#3 28800866#4 -131765643#16 -131765643#15 -131765643#14 -131765643#13 -131765643#12 -131765643#11 -131765643#10 -131765643#9 -131765643#8 -131765643#7 -131765643#6 -131765643#5 -131765643#4 -131765643#3 -131765643#2 -131765643#1 -131765643#0 28785007 28785002#4 28785002#5 28785002#6 28785002#7 28785002#0 131765652 -28783631#7 -28783631#6 -28783631#5 -28783631#4 -28783631#3 -28783631#2 -28783631#1 -28783631#0 -628138884#5 -628138884#4 -28785343#4 -102119729#11 -102119729#10 -102119729#9 -102119729#8 -102119729#7 -102119729#6 -102119729#5 -28786733#8 28786733#8"/>
    </vehicle>
    <vehicle id="26" depart="26.00">
        <route edges="-28803632#1 -28803632#0 28803607#5 28803607#6 28803607#7 28803607#8 -28786078#9 -28786078#8 -28786078#7 -28786078#6 -28786078#5 -28786078#4 -28786078#3 -28786078#2 -28786078#1 -28786078#0 -28701468#2 28783598 28785181#5 28785181#0 28785181#1 28783622#0 28783622#1 28783622#2 28783622#3 28783622#4 28783622#5 197963881#0 -28791454#0 131765643#13 131765643#14 131765643#15 -28800641#10 -28800641#9 -28800641#8 -28800641#7 193732788 28800656#2 28800656#3 28800656#4 28800656#5 28800656#6 28800656#7"/>
    </vehicle>
    <vehicle id="28" depart="28.00">
        <route edges="135461185#7 135461185#8 135461185#9 135461185#10 135461185#11 28785021 131765652 -28783631#7 -28783631#6 -28783631#5 -28783631#4 -28783631#3 -28783631#2 -28783631#1 -28783631#0 -628138884#5 -628138884#4 -628138884#3 -628138888 628138883#0 -28791695#4 28791697#0 -28791697#0"/>
    </vehicle>
    <vehicle id="29" depart="29.00">
        <route edges="131765643#11 -131765643#11 -131765643#10 -131765643#9 -131765643#8 -131765643#7 -131765643#6 -131765643#5 -131765643#4 131765643#4"/>
    </vehicle>
    <vehicle id="30" depart="30.00">
        <route edges="627606597#1 -627606597#1 -627606597#0 -131765643#1 -472040956#3 -193783816#11 -193783816#10 -193783816#9 -193783816#8 -193783816#7 -193783816#6 -193783816#5 -193783816#4 -193783816#3 -193783816#2 -193783816#1 -193783816#0 -627606612#3 -472040958#19 -472040958#18 -472040958#17 -472040958#16 -472040958#15 -28800976#1 -28800976#0 -28799999#7 -28799999#6 -28799999#5 28800988#1 28800988#2 28800988#3 28800988#4 28800988#5 28800988#6 28800988#7 28800988#8 28800988#9 -28801717#1 -28801717#0 28801714#0 28801714#1 28801714#2 28801714#3 28801714#4 28801714#5 28801714#6"/>
    </vehicle>
    <vehicle id="31" depart="31.00">
        <route edges="-28801714#0 28801717#0 28801717#1 -28800988#9 -28800988#8 -28800988#7 -28800988#6 -28800988#5 -28800988#4 -28800988#3 -28800988#2 -28800988#1 28799999#5 28799999#6 28799999#7 28800976#0 28800976#1 472040958#15 -421426727#3 -421426727#2 -421426727#1 -421426727#0 193783816#1 193783816#2 193783816#3 193783816#4 193783816#5 193783816#6 193783816#7 193783816#8 193783816#9 193783816#10 193783816#11 193783816#12 28785007 28785002#4 28785002#5 28785002#6 28785002#7 28785002#0 131765652 -28783631#7 -28783631#6 -28783631#5 203680503#0 203680503#1 203680503#2 203680503#3 627600383#0 627600383#1 627600383#2 627600383#3 627600383#4"/>
    </vehicle>
    <vehicle id="32" depart="32.00">
        <route edges="-628138884#5 628138884#5 28783631#0 28783631#1 28783631#2 28783631#3 -28791807 203680503#2 203680503#3 627600383#0 627600383#1 627600383#2 472039478"/>
    </vehicle>
    <vehicle id="33" depart="33.00">
        <route edges="131765643#14 -131765643#14 -131765643#13 -131765643#12 -131765643#11 -131765643#10 -131765643#9 -131765643#8 -131765643#7 -131765643#6 -131765643#5 -131765643#4 -131765643#3 -131765643#2 -131765643#1 -131765643#0 28785007 28785002#4 28785002#5 28785002#6 28785002#7 28785002#0 131765652 -28783631#7 -28783631#6 -28783631#5 -28783631#4 -28783631#3 -28783631#2 -28783631#1 28783631#1"/>
    </vehicle>
    <vehicle id="34" depart="34.00">
        <route edges="193783816#11 472040956#3 131765643#1 627606597#0 627606597#1 627606597#2 627606598#0"/>
    </vehicle>
    <vehicle id="35" depart="35.00">
        <route edges="28800991#6 28800991#7 -28801020#3 -28801020#2 -28801020#1 -28801020#0 28800976#0 28800976#1 472040958#15 -421426727#3 -421426727#2 -421426727#1 -421426727#0 193783816#1 193783816#2 193783816#3 193783816#4 193783816#5 193783816#6 193783816#7 193783816#8 28800434 131765643#3 131765643#4 131765643#5"/>
    </vehicle>
    <vehicle id="36" depart="36.00">
        <route edges="-28801714#2 28801703#0 28801703#1 28800988#11 28800988#12 28801577#1 -28801577#1"/>
    </vehicle>
    <vehicle id="37" depart="37.00">
        <route edges="28801513#6 28801513#7 -28800988#11 -28800988#10 -28800988#9 -28800988#8 -28800988#7 -28800988#6 -28800988#5 -28800988#4 -28800988#3 -28800988#2 -28800988#1 28799999#5 28799999#6 28799999#7 28800976#0 28800976#1 -472040958#14 -472040958#13 -472040958#12 -472040958#11 -472040958#10 -472040958#9 -28800028#2 -28800028#1 -28800023#4 -28800023#3 -28800023#2 -28800023#1 -28800023#0 28800202#3 28800202#4 28800202#5 -472040167#2 -472040167#1 -472040167#0 472040959#0 -472040168 -28791833 -28791832#11 28791832#11"/>
    </vehicle>
    <vehicle id="38" depart="38.00">
        <route edges="28786078#4 -28786078#4 -28786078#3 -28786078#2 -28786078#1 -28786078#0 -28701468#2 28783598 28785181#5 28785181#0 28785181#1 28783622#0 28783622#1 28783622#2 28783622#3 -28783578#4 -28783578#3 -28783578#2 -28783578#1 -28783578#0 131765643#7 131765643#8 -28801024#5 -28801024#4 -28801024#3 -28801024#2 -28801024#1 -28801024#0 627606612#1 627606612#2 -472040958#19 -472040958#18 -472040958#17 -472040958#16 -472040958#15 -28800976#1 -28800976#0 28801020#0 28801020#1 28801571#0 423409627#0 28801605"/>
    </vehicle>
    <vehicle id="39" depart="39.00">
        <route edges="423409627#4 28800991#7 -28801020#3 -28801020#2 -28801020#1 -28801020#0 28800976#0 28800976#1 472040958#15 -421426727#3 -421426727#2 -421426727#1 -421426727#0 193783816#1 193783816#2 193783816#3 193783816#4 193783816#5 193783816#6 193783816#7 193783816#8 193783816#9 193783816#10 193783816#11 193783816#12 28785007 28785002#4 28785002#5 28785002#6 28785002#7 28785002#0 131765652 -28783631#7 -28783631#6 -28783631#5 -28783631#4 -28783631#3 -28783631#2 -28783631#1 -28783631#0 -628138884#5 -628138884#4 -628138884#3 -628138888 628138883#0 628138883#1 628138883#2 628138883#3 -28701466#1 -28701466#0 28701516 28701451#0 28701451#1 478806971 -28701464#7 -28803632#5 28803632#5"/>
    </vehicle>
    <vehicle id="40" depart="40.00">
        <route edges="135461185#6 135461185#7 135461185#8 135461185#9 135461185#10 135461185#11 28785021 131765652 -28783631#7 -28783631#6 -28783631#5 -28783631#4 -28783631#3 -28783631#2 -28783631#1 -628138886 628138882#1 28785181#3"/>
    </vehicle>
    <vehicle id="41" depart="41.00">
        <route edges="28800976#1 472040958#15 472040958#16 472040958#17 472040958#18 472040958#19 -627606612#2 28800641#0 28800641#1 28800641#2 28800641#3 28800641#4 28800641#5 28800641#6 28800641#7 28800641#8 28800641#9 -421426778#1 421426778#1"/>
    </vehicle>
    <vehicle id="42" depart="42.00">
        <route edges="-28801655#0 28801655#0 -28801601#3 -28801601#2 -28801601#1 -28801601#0 -423409627#3 -423409627#2 28801577#5 -28801020#2 -28801020#1 -28801020#0 28800976#0 28800976#1 472040958#15 -421426727#3 -421426727#2 -421426727#1 -421426727#0 193783816#1 193783816#2 193783816#3 193783816#4 193783816#5 193783816#6 193783816#7 193783816#8 193783816#9 193783816#10 193783816#11 193783816#12 28785007 28785002#4 28785002#5 28785002#6 28785002#7 28785002#0 131765652 -28783631#7 -28783631#6 -28783631#5 -28783631#4 -28783631#3 -28783631#2 -28783631#1 -28783631#0 -628138884#5 -628138884#4 -628138884#3 -628138888 628138883#0 628138883#1 628138883#2 628138883#3 -28701466#1 -28701466#0 28701516 28701451#0 28701451#1 478806971 -28701464#7 -28803632#5 -28803632#4 -28803632#3 -28803632#2"/>
    </vehicle>
    <vehicle id="43" depart="43.00">
        <route edges="-28783578#12 -28783578#11 -28783578#10 -28783578#9 -28783578#8 -28783578#7 -28783578#6 -28783578#5 -28783578#4 -28783578#3 -28783578#2 -28783578#1 -28783578#0 131765643#7 131765643#8 -28801024#5 -28801024#4 -28801024#3 -28801024#2 -28801024#1 -28801024#0 627606612#1 627606612#2 -472040958#19 -472040958#18 -472040958#17 -472040958#16 -472040958#15 -28800976#1 -28800976#0 -28799999#7 -28799999#6 -28799999#5 -28799999#4 28801405#3 28801405#4 -28801532#1 -28801510#3 -28801510#2"/>
    </vehicle>
    <vehicle id="44" depart="44.00">
        <route edges="28786745#4 28786745#5 28786745#6 28786745#7 28786733#11 -628138883#5 -628138883#4 -628138883#3 -628138883#2 -628138883#1 -628138883#0 628138889 -628138884#0 -628138884#10 -628138884#9 -628138884#8 -28791763 28783631#1 -498228908#1 -498228908#0 -498228422#1 498228422#1"/>
    </vehicle>
    <vehicle id="45" depart="45.00">
        <route edges="131765643#3 -131765643#3 -28800434 -193783816#8 -193783816#7 -193783816#6 -193783816#5 -193783816#4 -193783816#3 -193783816#2 -193783816#1 -193783816#0 -627606612#3 -472040958#19 -472040958#18 -472040958#17 -472040958#16 -472040958#15 -28800976#1 -28800976#0 28801020#0 28801020#1 28801571#0"/>
    </vehicle>
    <vehicle id="46" depart="46.00">
        <route edges="-28783578#8 28783578#8 28783578#9 28783578#10 28783578#11 28804129#0 28804129#1 28701464#1 28701464#2 28786078#5 28786078#6 28786078#7 28786078#8 28786078#9 28786078#10 28786078#11 28786078#12 420990954#0 420990954#1"/>
    </vehicle>
    <vehicle id="47" depart="47.00">
        <route edges="-135461185#9 135461185#9 135461185#10 135461185#11 28785021 131765652 -28783631#7 -28783631#6 -28783631#5 -28783631#4 -28783631#3 -28783631#2 -28783631#1 -628138886 628138882#1 28785181#3 28785181#4 -28783598 28701468#2 28786078#0 28786078#1 28786078#2 28786078#3 28786078#4 28786078#5 28786078#6 28786078#7 28786078#8 421283313#0 421283313#1"/>
    </vehicle>
    <vehicle id="48" depart="48.00">
        <route edges="28791788#7 28791788#8 -131765643#4 -131765643#3 -28800434 -193783816#8 -193783816#7 -193783816#6 -193783816#5 -193783816#4 -193783816#3 -193783816#2 -193783816#1 -193783816#0 627606612#0 627606612#1 28800641#0 -28800165#3 -28800165#2 28801979#0 28801979#1 28801979#2 235362194#0 235362194#1 315789821"/>
    </vehicle>
    <vehicle id="49" depart="49.00">
        <route edges="28801443#1 -28801518 -28801513#0 28801510#2 28801510#3 28801532#1 -28801405#4 -28801405#3 28799999#4 28799999#5 28799999#6 28799999#7 28800976#0 28800976#1 472040958#15 -421426727#3 -421426727#2 -421426727#1 -421426727#0 193783816#1 193783816#2 193783816#3 193783816#4 193783816#5 193783816#6 193783816#7 193783816#8 193783816#9 193783816#10 193783816#11 193783816#12 28785007"/>
    </vehicle>
    <vehicle id="50" depart="50.00">
        <route edges="-28801673#0 -28801601#0 -423409627#3 -423409627#2 28801577#5 -28801020#2 -28801020#1 -28801020#0 28800976#0 28800976#1 472040958#15 472040958#16 472040958#17 472040958#18 472040958#19 -627606612#2 28800641#0 28800641#1 28800641#2 28800641#3 28800641#4 28800641#5 28800656#0 28800656#1 28800656#2"/>
    </vehicle>
    <vehicle id="51" depart="51.00">
        <route edges="-28801818 28801816#1 -28801587#0 28801577#0 -28800988#12 -28800988#11 -28800988#10 -28800988#9 -28800988#8 -28800988#7 -28800988#6 -28800988#5 -28800988#4 -28800988#3 -28800988#2 -28800988#1 28799999#5 28799999#6 28799999#7 28800976#0 28800976#1 472040958#15 472040958#16 472040958#17 472040958#18 472040958#19 -627606612#2 -627606612#1 28801024#0 28801024#1 28801024#2 28801024#3 28801024#4 28801024#5 -131765643#8 -131765643#7 28783578#0 28783578#1 28783578#2 28783578#3 28783578#4 28783578#5 28783578#6 28783578#7 28783578#8 28783578#9 -28783578#9"/>
    </vehicle>
    <vehicle id="52" depart="52.00">
        <route edges="421426716 -28801022#2 -28801022#1 -28801022#0 472040958#15 472040958#16 472040958#17 472040958#18 472040958#19 -627606612#2 -627606612#1 28801024#0 28801024#1 28801024#2 28801024#3 28801024#4 28801024#5 -131765643#8 -131765643#7 28783578#0 28783578#1 28783578#2 28783578#3 28783578#4 28783578#5 28783578#6 28783578#7 28783578#8 28783578#9 28783578#10 28783578#11 28804129#0 -28701468#7 -28701468#6 -28701468#5 -28701468#4 -28701468#3"/>
    </vehicle>
    <vehicle id="53" depart="53.00">
        <route edges="-28786723#1 28786723#1 102119729#1 102119729#2 102119729#3 102119729#4 102119729#5 102119729#6 102119729#7 102119729#8 102119729#9 102119729#10 102119729#11 28785343#4 628138884#4 628138884#5 28783631#0 28783631#1 28783631#2 28783631#3 28783631#4 28783631#5 28783631#6 28783631#7 28785028 28785002#2 28783632 -193783816#12 -193783816#11 -193783816#10 -193783816#9 -193783816#8 -193783816#7 -193783816#6 -193783816#5 -193783816#4 -193783816#3 -193783816#2 -193783816#1 -193783816#0 627606612#0 627606612#1 28800641#0 -28800165#3 -28800165#2 28801979#0 28801979#1 28801979#2"/>
    </vehicle>
    <vehicle id="54" depart="54.00">
        <route edges="421426778#0 -421426777 -131765643#14 -131765643#13 -131765643#12 -131765643#11 -131765643#10 -131765643#9 -131765643#8 -131765643#7 -131765643#6 -131765643#5 -131765643#4 -131765643#3 -131765643#2 -131765643#1 -131765643#0 28785007 28785002#4 28785002#5 28785002#6 28785002#7 28785002#0 131765652 -28783631#7 -28783631#6 -28783631#5 -28783631#4 -28783631#3 -28783631#2 -28783631#1 -28783631#0 -628138884#5 -628138884#4 -28785343#4 -28785343#3 28789844#0 28789844#1 28789844#2 28701466#7"/>
    </vehicle>
    <vehicle id="55" depart="55.00">
        <route edges="-472040167#1 472040167#1 28800210 28800202#7 28800202#8 28800202#0 28800202#1 -28800205 28800023#1 28800023#2 28800023#3 28800023#4 28800028#1 28800028#2 472040958#9 472040958#10 472040958#11 472040958#12 472040958#13 472040958#14 -28800976#1 -28800976#0 -28799999#7 -28799999#6 -28799999#5 28800988#1 28800988#2 28800988#3 28800988#4 28800988#5 28800988#6 28800988#7 28800988#8 28800988#9 -28801717#1 -28801717#0"/>
    </vehicle>
    <vehicle id="56" depart="56.00">
        <route edges="-28801601#5 28801601#5 -28801587#2 -28801587#1 -28801587#0 28801577#0 -28800988#12 -28800988#11 -28800988#10 -28800988#9 -28800988#8 -28800988#7 -28800988#6 -28800988#5 -28801552#2 -28801552#1 28801555#0 28801555#1"/>
    </vehicle>
    <vehicle id="57" depart="57.00">
        <route edges="28783631#6 28783631#7 28785028 28785002#2 28783632 131765643#0 131765643#1 131765643#2 131765643#3 131765643#4 131765643#5 131765643#6 131765643#7 131765643#8 131765643#9 131765643#10 -197963881#1"/>
    </vehicle>
    <vehicle id="58" depart="58.00">
        <route edges="-28800028#2 28800028#2 472040958#9 472040958#10 472040958#11 472040958#12 472040958#13 472040958#14 472040958#15 472040958#16 472040958#17 472040958#18 472040958#19 -627606612#2 -627606612#1 28801024#0 28801024#1 28801024#2 28800701#0 28800701#1 28800701#2"/>
    </vehicle>
    <vehicle id="59" depart="59.00">
        <route edges="-423622060 -628138883#4 -628138883#3 -628138883#2 -628138883#1 -628138883#0 628138889 -628138884#0 -628138884#10 -628138884#9 -628138884#8 -28791763 28783631#1 28783631#2 28783631#3 28783631#4 28783631#5 28783631#6 28783631#7 28785028 28785002#2 28783632 -193783816#12 -193783816#11 -193783816#10 -193783816#9 -193783816#8 -193783816#7 -193783816#6 -193783816#5 -193783816#4 -193783816#3 -193783816#2 -193783816#1 -193783816#0 -627606612#3 -472040958#19 -472040958#18 -472040958#17 -472040958#16 -472040958#15 -28800976#1 -28800976#0 -28799999#7 -28799999#6 -28799999#5 28800988#1 28800988#2 28800988#3 28800988#4 28800988#5 28800988#6 28800988#7 28800988#8 28800988#9 28800988#10 28800988#11 28800988#12 -28801577#0 28801587#0 -28801647#5 28801647#5"/>
    </vehicle>
    <vehicle id="60" depart="60.00">
        <route edges="28803628#3 -28803628#3 28803632#4 28803632#5 28701464#7 28701524 28701451#3 28701451#4 28701451#5 478806969 28701466#0 28701466#1 -628138883#3 -628138883#2 -628138883#1 -628138883#0 628138889 -628138884#0 -628138884#10 -628138884#9 -628138884#8 -28791763 28783631#1 28783631#2 28783631#3 28783631#4 28783631#5 28783631#6 28783631#7 28785028 28785002#2 28785002#3 28785002#4 472040960#0 472040960#1 -28801022#12 28800018#1 -472040167#0 472040959#0 -472040168 -28791833 28791832#12"/>
    </vehicle>
    <vehicle id="61" depart="61.00">
        <route edges="-421426726#0 28800641#4 28800641#5 28800641#6 28800641#7 28800641#8 28800641#9 28800641#10 -131765643#15 -131765643#14 -131765643#13 28791454#0 -197963881#0 -28783622#5 -28783622#4 -28783622#3 -28783622#2 -28783622#1 -28783622#0 28785181#2 28785181#3 28785181#4 -28783598 28701468#2 28786078#0 28786078#1 28786078#2 28786078#3 28786078#4 28786078#5 28786078#6 28786078#7 28786078#8 28786078#9 -28803607#8 -28803607#7 -28803607#6 -28803607#5 -28803607#4 -28803607#3 28803649#2"/>
    </vehicle>
    <vehicle id="62" depart="62.00">
        <route edges="472039808#1 472040166#1 472040166#2 472040166#3 472040959#0 472040959#1 472040959#2 -472040962 -28801022#12 -28801022#11 -28801022#10 -28801022#9 -28801022#8 -28801022#7 -28801022#6 -28801022#5 -28801022#4 -28801022#3 -28801022#2 -28801022#1 -28801022#0 -28800976#1 -28800976#0 -28799999#7 -28799999#6 -28799999#5 28800988#1 28800988#2 28800988#3 28800988#4 28800988#5 28800988#6 28800988#7 28800988#8 28800988#9 -28801717#1 -28801717#0 28801714#0 28801715#0"/>
    </vehicle>
    <vehicle id="63" depart="63.00">
        <route edges="-193783816#8 -193783816#7 -193783816#6 -193783816#5 -193783816#4 -193783816#3 -193783816#2 -193783816#1 -193783816#0 -627606612#3 -472040958#19 -472040958#18 -472040958#17 -472040958#16 -472040958#15 -28800976#1 -28800976#0 -28799999#7 -28799999#6 -28799999#5 28800988#1 28800988#2 28800988#3 28800988#4 28800988#5 28800988#6 28800988#7 28800988#8 28800988#9 28800988#10 28800988#11 28800988#12 -28801577#0 28801587#0 -28801816#1"/>
    </vehicle>
    <vehicle id="64" depart="64.00">