<?xml version="1.0" encoding="UTF-8"?>

<!-- generated on Mon Apr  8 00:30:30 2019 by Eclipse SUMO polyconvert Version 1.1.0
<configuration xmlns:xsi="http://www.w3.org/2001/XMLSchema-instance" xsi:noNamespaceSchemaLocation="http://sumo.dlr.de/xsd/polyconvertConfiguration.xsd">

    <input>
        <net-file value="test.net.xml"/>
        <osm-files value="map.osm"/>
    </input>

    <output>
        <output-file value="test.poly.xml"/>
    </output>

    <processing>
        <poi-layer-offset value="5"/>
    </processing>

</configuration>
-->

<additional xmlns:xsi="http://www.w3.org/2001/XMLSchema-instance" xsi:noNamespaceSchemaLocation="http://sumo.dlr.de/xsd/additional_file.xsd">
    <location netOffset="-582019.13,-2814434.44" convBoundary="0.00,-0.00,6776.91,6587.21" origBoundary="81.815811,25.444324,81.883208,25.503824" projParameter="+proj=utm +zone=44 +ellps=WGS84 +datum=WGS84 +units=m +no_defs"/>

    <poly id="165081828" type="amenity" color="237,199,199" fill="1" layer="-1.00" shape="2904.210505,1363.387890 2915.066502,1352.725259 2904.940389,1333.889379 2891.939816,1341.847264 2904.210505,1363.387890"/>
    <poly id="165081828#1" type="sport" color="79,230,125" fill="1" layer="-2.00" shape="2904.210505,1363.387890 2915.066502,1352.725259 2904.940389,1333.889379 2891.939816,1341.847264 2904.210505,1363.387890"/>
    <poly id="165081829" type="amenity" color="237,199,199" fill="1" layer="-1.00" shape="3121.221345,1470.085885 3119.630914,1498.859078 3018.613071,1524.498004 3031.338647,1569.354015 2936.261376,1593.757651 2908.861091,1506.890778 2919.375483,1466.036211 2913.014514,1387.763842 3031.401508,1345.600044 3046.695024,1399.343233 3093.155779,1388.375226 3101.847928,1411.310886 3163.556471,1427.982915 3121.221345,1470.085885"/>
    <poly id="165081830" type="amenity" color="237,199,199" fill="1" layer="-1.00" shape="2913.014514,1387.763842 3031.401508,1345.600044 3015.780643,1291.134944 3088.024507,1262.278690 2979.949210,1122.660003 2834.751354,1139.979985 2882.445999,1359.683907 2913.014514,1387.763842"/>
    <poly id="165081831" type="amenity" color="237,199,199" fill="1" layer="-1.00" shape="3190.172469,1402.370096 3088.024507,1262.278690 3015.780643,1291.134944 3031.401508,1345.600044 3046.695024,1399.343233 3093.155779,1388.375226 3101.847928,1411.310886 3163.556471,1427.982915 3190.172469,1402.370096"/>
    <poly id="192668501" type="amenity" color="237,199,199" fill="1" layer="-1.00" shape="4802.133526,2199.516219 4813.078600,2210.927774 4822.417802,2201.751917 4811.520196,2190.772580 4802.133526,2199.516219"/>
    <poly id="192670118" type="building" color="255,230,230" fill="1" layer="-1.00" shape="4758.874471,2155.634368 4767.139645,2166.364034 4798.335991,2141.681064 4789.506465,2131.158144 4758.874471,2155.634368"/>
    <poly id="193223415" type="leisure" color="207,245,201" fill="1" layer="-2.00" shape="2645.049040,1802.290330 2633.327422,1693.849848 2861.522294,1686.710605 2861.185249,1824.024361 2645.049040,1802.290330"/>
    <poly id="193223418" type="tourism" color="207,245,201" fill="1" layer="-2.00" shape="3033.789750,1563.355980 3022.677387,1525.708797 3123.688405,1501.144110 3123.905674,1471.697707 3196.580380,1403.440798 3255.420086,1485.402882 3238.011425,1505.082705 3033.789750,1563.355980"/>
    <poly id="193223422" type="tourism" color="207,245,201" fill="1" layer="-2.00" shape="3142.844668,1715.850419 3101.177237,1567.538242 3246.517483,1528.770374 3297.589115,1549.982466 3356.024402,1695.212625 3151.574002,1726.559829 3142.844668,1715.850419"/>
    <poly id="193223424" type="amenity" color="237,199,199" fill="1" layer="-1.00" shape="4057.252490,1515.735905 4061.526889,1513.969249 4118.364968,1490.390816 4123.088711,1492.237448 4135.193943,1496.966685 4166.294427,1509.116383 4170.015255,1510.568964 4229.630544,1464.814979 4203.626234,1399.749361 4032.178588,1473.202730 4057.252490,1515.735905"/>
    <poly id="193783817" type="tourism" color="207,245,201" fill="1" layer="-2.00" shape="4551.076167,1582.143297 4569.108402,1587.620017 4565.512928,1601.008368 4548.554759,1595.804386 4545.808300,1603.838023 4566.256554,1610.404605 4568.432023,1608.270152 4572.449425,1612.050472 4551.833101,1631.497503 4557.455291,1637.436699 4552.029998,1643.038719 4566.214343,1658.945191 4578.691869,1648.028550 4582.977202,1652.353271 4596.549555,1638.497825 4603.113705,1666.692411 4613.917091,1664.347952 4607.854273,1642.591062 4618.929134,1640.248361 4623.397542,1658.240587 4630.688635,1656.416095 4626.763546,1636.810458 4621.097991,1637.582282 4619.270305,1627.913235 4601.443732,1632.626593 4575.735301,1604.562991 4580.162797,1586.894072 4573.966480,1585.779770 4575.356679,1580.694346 4552.745075,1574.379569 4551.076167,1582.143297"/>
    <poly id="193783818" type="tourism" color="207,245,201" fill="1" layer="-2.00" shape="4377.144264,1591.829673 4489.227092,1520.610949 4498.731745,1554.361854 4499.410936,1592.430326 4514.537397,1601.033454 4522.995768,1616.183036 4537.950030,1609.413255 4549.334232,1632.334118 4554.761141,1637.374992 4548.894518,1644.369587 4555.722952,1650.349800 4564.979793,1661.728064 4580.542617,1660.355693 4593.309948,1707.262489 4542.026380,1683.441415 4496.416149,1698.097811 4392.978875,1738.517808 4377.144264,1591.829673"/>
    <poly id="193783819" type="historic" color="128,255,128" fill="1" layer="-1.00" shape="4433.604313,1650.259011 4448.196885,1644.992972 4458.502010,1677.785511 4438.233893,1683.823375 4432.959297,1666.080737 4431.088181,1663.122767 4430.306381,1659.629161 4431.131481,1656.411719 4433.030251,1655.083919 4434.657567,1653.754368 4433.604313,1650.259011"/>
    <poly id="197961407" type="leisure" color="207,245,201" fill="1" layer="-2.00" shape="5006.574303,1966.554961 5024.434610,1992.198453 5035.174187,1964.060667 5038.431980,1954.734688 5013.433905,1947.561907 5006.574303,1966.554961"/>
    <poly id="197961409" type="amenity" color="237,199,199" fill="1" layer="-1.00" shape="4549.774007,2090.202626 4620.695755,2040.270733 4602.040642,2005.275525 4655.179466,1965.904947 4645.986127,1932.322025 4638.845390,1906.261110 4483.439090,1921.880080 4520.985031,2037.987176 4549.774007,2090.202626"/>
    <poly id="197961410" type="building" color="255,230,230" fill="1" layer="-1.00" shape="4730.595518,2195.586338 4752.251038,2220.500957 4765.766951,2209.092855 4765.547551,2205.713615 4781.967561,2191.433816 4776.235050,2185.504870 4767.822474,2188.219069 4755.292185,2174.737369 4730.595518,2195.586338"/>
    <poly id="197963879" type="man_made" color="255,230,230" fill="1" layer="-1.00" shape="3643.891888,2412.912822 3642.786890,2408.054999 3639.094446,2403.767592 3633.173284,2402.123884 3627.224717,2404.765945 3623.886246,2411.156900 3625.361519,2419.428124 3629.849374,2423.532341 3635.501075,2423.291611 3640.982232,2419.849180 3643.891888,2412.912822"/>
    <poly id="197964560" type="building" color="255,230,230" fill="1" layer="-1.00" shape="4828.496661,2175.964851 4839.291577,2187.275781 4832.775433,2193.668001 4821.789644,2182.333690 4828.496661,2175.964851"/>
    <poly id="197964561" type="building" color="255,230,230" fill="1" layer="-1.00" shape="4849.194891,2156.230833 4859.641311,2167.019003 4867.602959,2159.429015 4857.095858,2148.695820 4849.194891,2156.230833"/>
    <poly id="197964562" type="building" color="255,230,230" fill="1" layer="-1.00" shape="4839.975706,2163.945575 4848.013101,2172.580676 4854.809468,2166.389627 4846.832968,2157.666318 4839.975706,2163.945575"/>
    <poly id="197964563" type="building" color="255,230,230" fill="1" layer="-1.00" shape="4780.226961,2179.218090 4796.993331,2196.824949 4815.746213,2179.392911 4798.880673,2161.574964 4780.226961,2179.218090"/>
    <poly id="197964564" type="building" color="255,230,230" fill="1" layer="-1.00" shape="4840.934527,2183.532070 4848.803088,2176.340162 4837.820815,2164.463195 4829.941698,2171.732565 4840.934527,2183.532070"/>
    <poly id="197964565" type="building" color="255,230,230" fill="1" layer="-1.00" shape="4860.259767,2144.518983 4872.184021,2133.621177 4883.516725,2145.721943 4871.513338,2156.419878 4860.259767,2144.518983"/>
    <poly id="197964567" type="building" color="255,230,230" fill="1" layer="-1.00" shape="4893.155329,2115.206899 4904.672228,2126.810510 4886.494719,2143.858542 4874.708099,2131.987402 4893.155329,2115.206899"/>
    <poly id="197964568" type="building" color="255,230,230" fill="1" layer="-1.00" shape="4826.671115,2190.815421 4820.698273,2184.740925 4813.647509,2191.406559 4819.810576,2197.604108 4826.671115,2190.815421"/>
    <poly id="197970882" type="building" color="255,230,230" fill="1" layer="-1.00" shape="4767.708253,2205.849436 4784.281219,2191.238386 4804.882681,2212.790593 4788.068219,2227.433278 4767.708253,2205.849436"/>
    <poly id="197970884" type="building" color="255,230,230" fill="1" layer="-1.00" shape="4799.038350,2241.181771 4816.697365,2224.983026 4806.760525,2214.685484 4789.119608,2231.194454 4799.038350,2241.181771"/>
    <poly id="197970885" type="building" color="255,230,230" fill="1" layer="-1.00" shape="4786.153847,2231.175235 4793.142299,2238.773548 4772.503656,2257.101532 4765.275356,2249.280179 4786.153847,2231.175235"/>
    <poly id="197970887" type="building" color="255,230,230" fill="1" layer="-1.00" shape="4767.026152,2210.263869 4785.376354,2230.140239 4765.009151,2248.469993 4755.636718,2237.954649 4769.744684,2225.166034 4760.649501,2215.305899 4767.026152,2210.263869"/>
    <poly id="197991735" type="building" color="255,230,230" fill="1" layer="-1.00" shape="4729.727251,1870.091971 4727.190895,1845.666666 4709.117417,1846.623914 4711.105672,1871.854127 4729.727251,1870.091971"/>
    <poly id="197991736" type="building" color="255,230,230" fill="1" layer="-1.00" shape="4698.703419,1704.942932 4771.805462,1747.212596 4755.972891,1773.169072 4683.777437,1730.650636 4698.703419,1704.942932"/>
    <poly id="197991737" type="building" color="255,230,230" fill="1" layer="-1.00" shape="4770.440507,1808.923672 4820.212767,1803.631252 4818.696683,1787.795519 4769.587770,1793.114393 4770.440507,1808.923672"/>
    <poly id="197991738" type="building" color="255,230,230" fill="1" layer="-1.00" shape="4975.671600,1950.539415 4984.542966,1954.617184 4991.263360,1964.794289 4986.619642,1973.889781 4982.765823,1979.014544 4965.617086,1969.190573 4975.671600,1950.539415"/>
    <poly id="197991739" type="amenity" color="237,199,199" fill="1" layer="-1.00" shape="4984.165612,1847.067173 4993.535147,1864.238615 5016.777700,1849.161712 5002.052981,1832.974353 4984.165612,1847.067173"/>
    <poly id="197991740" type="building" color="255,230,230" fill="1" layer="-1.00" shape="4690.590226,1875.741490 4711.392013,1874.214915 4708.866756,1843.410597 4687.554261,1844.612703 4690.590226,1875.741490"/>
    <poly id="197991741" type="amenity" color="237,199,199" fill="1" layer="-1.00" shape="4873.383745,1796.733059 4877.735745,1838.812353 4828.579877,1843.643410 4824.534510,1802.319212 4873.383745,1796.733059"/>
    <poly id="197991742" type="building" color="255,230,230" fill="1" layer="-1.00" shape="4765.574434,1830.632005 4765.128456,1817.217520 4745.163112,1818.428262 4745.922353,1831.601128 4765.574434,1830.632005"/>
    <poly id="197991743" type="building" color="255,230,230" fill="1" layer="-1.00" shape="4769.015812,1839.503071 4770.539519,1860.377886 4736.000844,1863.908550 4734.254482,1844.804269 4742.593889,1844.105184 4742.585615,1842.277786 4769.015812,1839.503071"/>
    <poly id="197991744" type="building" color="255,230,230" fill="1" layer="-1.00" shape="4827.711259,1853.560812 4776.441034,1858.865643 4774.648221,1843.836584 4825.648774,1838.264201 4827.711259,1853.560812"/>
    <poly id="197992364" type="building" color="255,230,230" fill="1" layer="-1.00" shape="4753.216999,2173.815792 4742.107175,2161.439713 4717.700909,2182.467784 4728.935107,2194.268757 4753.216999,2173.815792"/>
    <poly id="198062826" type="tourism" color="207,245,201" fill="1" layer="-2.00" shape="4793.921505,2613.384384 4803.303227,2606.911051 4849.006333,2648.826585 4833.327999,2649.577667 4810.098995,2655.053063 4791.187607,2661.364946 4796.156243,2643.965380 4797.562440,2634.859916 4796.277916,2625.194344 4793.921505,2613.384384"/>
    <poly id="198079996" type="amenity" color="237,199,199" fill="1" layer="-1.00" shape="3922.772446,1919.035904 3904.165221,1876.267550 3997.716438,1837.441606 4015.797889,1882.200183 3922.772446,1919.035904"/>
    <poly id="198079997" type="amenity" color="237,199,199" fill="1" layer="-1.00" shape="3964.282482,2467.748139 3975.767727,2442.072970 4007.167101,2424.577071 4033.535357,2432.797825 4053.249831,2470.468063 3985.344701,2508.483570 3964.282482,2467.748139"/>
    <poly id="198079998" type="amenity" color="237,199,199" fill="1" layer="-1.00" shape="3952.580776,2190.371251 4003.756687,2284.027079 4061.680158,2250.609977 4011.047723,2155.340492 3952.580776,2190.371251"/>
    <poly id="198079999" type="amenity" color="237,199,199" fill="1" layer="-1.00" shape="4380.154438,1873.425833 4395.479678,1922.873986 4336.004408,1945.559302 4316.348686,1898.763416 4380.154438,1873.425833"/>
    <poly id="198080000" type="amenity" color="237,199,199" fill="1" layer="-1.00" shape="3856.435721,2297.024976 3887.514818,2349.873820 3973.992791,2298.853394 3945.748391,2246.111134 3856.435721,2297.024976"/>
    <poly id="198082398" type="amenity" color="237,199,199" fill="1" layer="-1.00" shape="4722.623104,2465.682713 4711.359479,2461.567466 4702.777240,2454.800558 4697.128952,2446.745821 4693.138210,2437.339615 4691.316908,2429.819099 4692.731796,2419.362556 4694.375020,2414.012983 4705.404510,2417.030291 4763.979850,2366.997096 4770.722186,2367.572371 4778.009861,2372.426064 4785.232846,2381.055855 4789.731585,2388.084295 4789.691608,2394.252710 4772.921256,2408.330878 4778.500932,2414.557858 4769.868711,2421.711631 4777.900750,2431.155123 4765.378163,2442.901889 4754.027721,2452.186575 4744.242498,2458.856676 4733.999055,2463.319928 4722.623104,2465.682713"/>
    <poly id="198084443" type="amenity" color="237,199,199" fill="1" layer="-1.00" shape="2615.699512,1839.149933 2624.787886,1937.894449 2511.139739,2084.127739 2400.005653,2016.867726 2315.031789,1965.444090 2285.438884,1782.347420 2339.764643,1805.758051 2373.152585,1814.008580 2445.917413,1821.444209 2615.699512,1839.149933"/>
    <poly id="198084446" type="amenity" color="237,199,199" fill="1" layer="-1.00" shape="3124.753501,1597.767084 3216.611938,1572.070699 3246.100418,1684.368156 3157.479996,1710.084902 3124.753501,1597.767084"/>
    <poly id="198084447" type="landuse" color="194,194,130" fill="1" layer="-3.00" shape="3436.228105,1890.473791 3456.132810,1941.267860 3452.591527,1946.350738 3449.642026,1948.502577 3445.299078,1948.441647 3438.834796,1946.794569 3431.031876,1943.798907 3434.057592,1934.426798 3409.883141,1924.105983 3414.801324,1909.640467 3396.233061,1903.087628 3395.174408,1900.400784 3411.712074,1891.136971 3415.975515,1898.938649 3436.228105,1890.473791"/>
    <poly id="198117364" type="amenity" color="237,199,199" fill="1" layer="-1.00" shape="2864.911152,856.447091 2876.031126,856.550745 2877.380822,824.431464 2949.916370,802.243250 2912.892416,729.557623 2897.312140,719.270146 2877.370891,716.463741 2861.166026,720.647037 2846.518918,732.891553 2836.707648,749.995284 2837.169164,761.272292 2817.197300,764.900205 2821.911146,785.850226 2819.553888,796.079441 2848.816925,803.485429 2866.135263,829.864386 2864.911152,856.447091"/>
    <poly id="198117365" type="tourism" color="207,245,201" fill="1" layer="-2.00" shape="2773.298771,837.837529 2775.974652,840.811413 2779.493701,840.833677 2781.647205,838.964596 2781.664161,836.284616 2779.531150,833.325240 2776.022153,833.303040 2773.848610,835.160920 2773.298771,837.837529"/>
    <poly id="198119987" type="amenity" color="237,199,199" fill="1" layer="-1.00" shape="2223.752941,954.532970 2263.157733,949.686337 2259.589837,915.863834 2220.907021,919.408201 2223.752941,954.532970"/>
    <poly id="198119988" type="tourism" color="207,245,201" fill="1" layer="-2.00" shape="2188.676656,956.992624 2220.790255,953.982762 2217.498803,919.353556 2185.014711,922.106382 2188.676656,956.992624"/>
    <poly id="198221950" type="amenity" color="237,199,199" fill="1" layer="-1.00" shape="4192.377460,1983.816913 4247.474260,2055.515435 4304.351587,2016.189730 4247.336737,1945.718999 4192.377460,1983.816913"/>
    <poly id="198221951" type="amenity" color="237,199,199" fill="1" layer="-1.00" shape="4130.494339,2129.318186 4170.397441,2215.393472 4240.167457,2184.733448 4199.192392,2098.119455 4130.494339,2129.318186"/>
    <poly id="198493019" type="building" color="255,230,230" fill="1" layer="-1.00" shape="3033.933484,1966.755036 3067.412357,1965.317483 3065.784775,1919.225055 3038.810762,1920.659613 3040.274215,1949.861979 3033.507861,1949.863320 3033.933484,1966.755036"/>
    <poly id="198493020" type="building" color="255,230,230" fill="1" layer="-1.00" shape="3008.980660,1947.559126 3032.138744,1951.726263 3037.446562,1923.331045 3014.018669,1918.896393 3008.980660,1947.559126"/>
    <poly id="199495484" type="amenity" color="237,199,199" fill="1" layer="-1.00" shape="2647.717762,867.477030 2677.419498,864.320118 2680.705096,894.918233 2650.739425,898.483233 2647.717762,867.477030"/>
    <poly id="199823585" type="amenity" color="237,199,199" fill="1" layer="-1.00" shape="3525.208828,1072.737939 3941.581780,822.155241 3917.840410,654.629979 3799.114143,479.796159 3642.415194,369.618928 3578.729781,310.682048 3234.826525,425.118785 3357.588993,663.652867 3525.208828,1072.737939"/>
    <poly id="199823586" type="tourism" color="207,245,201" fill="1" layer="-2.00" shape="4304.048032,1548.344054 4324.402932,1539.781490 4361.137006,1523.328533 4360.500898,1495.670669 4362.285571,1469.933277 4361.583767,1435.308947 4358.203039,1407.611245 4350.089986,1377.834207 4341.003618,1364.906736 4330.837640,1357.243917 4319.873435,1354.869713 4302.617510,1353.684289 4206.380321,1398.316285 4209.380232,1405.556351 4235.646188,1469.017822 4242.974403,1469.242193 4263.131859,1477.301524 4284.835130,1509.170572 4304.048032,1548.344054"/>
    <poly id="202184997" type="amenity" color="237,199,199" fill="1" layer="-1.00" shape="4857.927412,2642.073432 4924.376635,2577.750115 4873.480196,2525.855444 4800.489950,2583.380967 4857.927412,2642.073432"/>
    <poly id="202187935" type="building" color="255,230,230" fill="1" layer="-1.00" shape="4958.310633,1882.028618 4979.119890,1876.260852 4973.832512,1859.060551 4954.090793,1864.547312 4958.310633,1882.028618"/>
    <poly id="202995377" type="building" color="255,230,230" fill="1" layer="-1.00" shape="4732.116778,1914.085517 4750.756329,1912.644677 4748.461598,1888.176632 4725.796741,1890.178377 4727.069290,1901.715494 4730.036844,1901.468914 4732.116778,1914.085517"/>
    <poly id="202995380" type="leisure" color="207,245,201" fill="1" layer="-2.00" shape="4550.344127,2087.548356 4618.876132,2040.247890 4581.594748,1967.333948 4556.746060,1972.799347 4565.440669,2004.241541 4519.262147,2015.206244 4526.665152,2038.046019 4550.344127,2087.548356"/>
    <poly id="202995381" type="building" color="255,230,230" fill="1" layer="-1.00" shape="4734.257448,1917.322148 4766.932328,1914.355301 4769.155147,1940.605931 4757.293568,1940.263300 4744.442125,1929.758667 4734.257448,1917.322148"/>
    <poly id="203023795" type="building" color="255,230,230" fill="1" layer="-1.00" shape="4978.923269,1923.571198 4983.390187,1923.123988 4983.380550,1924.607951 4988.249542,1924.174429 4988.032980,1921.913760 4994.934899,1921.172273 4993.066643,1906.962221 4988.437853,1907.563424 4988.731825,1910.289739 4977.973303,1911.936470 4978.923269,1923.571198"/>
    <poly id="203023797" type="building" color="255,230,230" fill="1" layer="-1.00" shape="5002.746277,1877.931543 5022.731485,1869.013242 5015.148890,1852.263155 4999.010134,1861.837714 5000.013906,1863.638355 4996.079798,1865.639494 4997.870260,1868.608100 4996.761260,1869.077114 4998.470285,1872.200238 4999.417850,1871.818774 5001.351923,1875.895794 5002.290514,1875.348150 5002.746277,1877.931543"/>
    <poly id="203023798" type="building" color="255,230,230" fill="1" layer="-1.00" shape="5012.963959,1923.947339 5015.549261,1923.731562 5015.295221,1927.240630 5024.080608,1927.530278 5024.010828,1925.890751 5026.836914,1925.754065 5026.861234,1922.010934 5028.109471,1921.775398 5028.388247,1916.007228 5033.175304,1915.805761 5032.902138,1909.878958 5026.301892,1910.611310 5026.644842,1918.177640 5019.896241,1918.532488 5019.711125,1911.432326 5012.649923,1911.929120 5012.963959,1923.947339"/>
    <poly id="203023799" type="building" color="255,230,230" fill="1" layer="-1.00" shape="5014.553134,1943.969861 5021.446338,1944.568385 5021.286468,1945.962774 5036.481874,1948.486892 5037.414923,1937.960801 5030.509576,1937.683359 5030.863241,1932.768437 5032.974509,1932.782156 5033.167821,1927.788668 5030.814761,1927.850902 5030.745989,1926.056334 5035.762262,1926.166453 5035.961619,1920.242719 5029.294025,1920.509490 5028.846670,1929.012045 5013.625935,1928.835634 5013.597087,1933.276450 5015.326315,1933.287683 5014.553134,1943.969861"/>
    <poly id="203023800" type="building" color="255,230,230" fill="1" layer="-1.00" shape="5004.859551,1879.185649 5011.122771,1893.191680 5026.305640,1886.822622 5019.723304,1872.415817 5004.859551,1879.185649"/>
    <poly id="203023801" type="building" color="255,230,230" fill="1" layer="-1.00" shape="4988.008246,1996.934424 4999.731547,2003.079568 4995.901240,2012.324314 4983.859771,2004.083965 4988.008246,1996.934424"/>
    <poly id="203023802" type="building" color="255,230,230" fill="1" layer="-1.00" shape="4927.345050,1922.139956 4946.494421,1919.606290 4942.880202,1897.112026 4924.814585,1899.962826 4927.345050,1922.139956"/>
    <poly id="203023803" type="building" color="255,230,230" fill="1" layer="-1.00" shape="4960.933101,1896.221410 4981.367475,1890.894206 4978.297631,1877.473742 4957.285576,1883.505989 4960.933101,1896.221410"/>
    <poly id="203023805" type="building" color="255,230,230" fill="1" layer="-1.00" shape="4986.370187,1993.723163 5005.836241,2002.786978 5011.108468,1992.898188 4997.387897,1970.736946 4986.370187,1993.723163"/>
    <poly id="203023806" type="building" color="255,230,230" fill="1" layer="-1.00" shape="4969.203668,2040.834717 4991.303018,2053.116236 4983.223034,2068.070141 4961.344822,2054.250670 4969.203668,2040.834717"/>
    <poly id="203023807" type="building" color="255,230,230" fill="1" layer="-1.00" shape="5004.375574,2004.770957 5010.334571,2009.881935 5007.193622,2015.155295 5009.618012,2018.039423 5005.579401,2025.300420 4997.619098,2020.276118 5000.978343,2015.447166 4998.446222,2013.669823 5004.375574,2004.770957"/>
    <poly id="203023808" type="building" color="255,230,230" fill="1" layer="-1.00" shape="4745.210181,2219.436468 4739.062333,2224.856534 4743.613630,2229.991502 4752.147402,2239.604344 4768.316810,2225.201083 4759.672667,2215.554291 4751.940397,2221.894372 4747.818600,2217.194101 4745.210181,2219.436468"/>
    <poly id="203023809" type="building" color="255,230,230" fill="1" layer="-1.00" shape="4955.691009,1929.345382 4976.261969,1926.200798 4972.793573,1904.482707 4948.912828,1909.477456 4950.235041,1917.980424 4952.237518,1917.716553 4952.589794,1922.303815 4955.316134,1922.044643 4955.691009,1929.345382"/>
    <poly id="203023810" type="building" color="255,230,230" fill="1" layer="-1.00" shape="5016.819356,1909.298249 5036.449255,1907.089002 5032.795698,1889.124054 5036.722753,1888.208212 5035.690359,1884.624336 5026.629929,1887.976511 5026.951267,1889.584447 5012.941175,1894.953314 5016.819356,1909.298249"/>
    <poly id="203023811" type="building" color="255,230,230" fill="1" layer="-1.00" shape="5028.480072,2124.690681 5032.847045,2128.783518 5037.269863,2124.282656 5039.804544,2121.020981 5035.907998,2117.252369 5041.751413,2110.745123 5038.320327,2108.064868 5027.267905,2119.377964 5030.537126,2122.212212 5028.480072,2124.690681"/>
    <poly id="203023812" type="building" color="255,230,230" fill="1" layer="-1.00" shape="4963.333843,1977.083169 4980.087618,1985.797091 4969.886704,2003.771731 4954.896629,1995.955256 4963.333843,1977.083169"/>
    <poly id="223237255" type="tourism" color="207,245,201" fill="1" layer="-2.00" shape="4434.340905,2128.174701 4463.068135,2158.826918 4455.631176,2117.879649 4434.340905,2128.174701"/>
    <poly id="235218234" type="amenity" color="237,199,199" fill="1" layer="-1.00" shape="5309.662878,2173.389425 5388.605560,2282.880661 5423.917266,2344.078101 5444.436069,2381.179874 5461.702262,2399.056669 5494.964329,2404.556643 5526.334490,2405.714073 5559.155366,2406.415919 5589.150060,2396.522884 5610.454904,2385.620627 5614.895880,2372.215896 5549.375462,2326.081529 5462.456954,2220.380164 5450.328602,2230.135419 5438.364102,2213.256774 5425.532228,2219.895429 5420.039108,2211.221200 5358.171422,2138.177679 5309.662878,2173.389425"/>
    <poly id="235218234#1" type="building" color="255,230,230" fill="1" layer="-1.00" shape="5309.662878,2173.389425 5388.605560,2282.880661 5423.917266,2344.078101 5444.436069,2381.179874 5461.702262,2399.056669 5494.964329,2404.556643 5526.334490,2405.714073 5559.155366,2406.415919 5589.150060,2396.522884 5610.454904,2385.620627 5614.895880,2372.215896 5549.375462,2326.081529 5462.456954,2220.380164 5450.328602,2230.135419 5438.364102,2213.256774 5425.532228,2219.895429 5420.039108,2211.221200 5358.171422,2138.177679 5309.662878,2173.389425"/>
    <poly id="235218237" type="building" color="255,230,230" fill="1" layer="-1.00" shape="5283.428499,2152.364522 5291.971434,2146.639137 5283.481993,2134.899863 5274.729879,2140.324869 5283.428499,2152.364522"/>
    <poly id="235218238" type="building" color="255,230,230" fill="1" layer="-1.00" shape="5290.187644,2142.662722 5293.764587,2147.636484 5297.215660,2145.698733 5302.725518,2142.567246 5292.552846,2128.391606 5283.980966,2133.928529 5290.187644,2142.662722"/>
    <poly id="235218241" type="building" color="255,230,230" fill="0" layer="-1.00" shape="5298.701146,2119.859761 5309.780485,2113.707927 5304.042606,2108.631476"/>
    <poly id="235218248" type="building" color="255,230,230" fill="1" layer="-1.00" shape="5268.172973,2140.592239 5282.051897,2132.188284 5276.171107,2122.813880 5262.070351,2131.316068 5268.172973,2140.592239"/>
    <poly id="235218252" type="building" color="255,230,230" fill="1" layer="-1.00" shape="5303.696790,2141.632217 5316.216545,2131.979056 5313.396742,2128.073408 5300.526340,2137.536013 5303.696790,2141.632217"/>
    <poly id="235219064" type="building" color="255,230,230" fill="1" layer="-1.00" shape="5294.631986,2124.074899 5296.184671,2126.488257 5293.641008,2128.033229 5299.145092,2136.585649 5305.934690,2131.469035 5298.502261,2121.065621 5294.631986,2124.074899"/>
    <poly id="235219677" type="building" color="255,230,230" fill="1" layer="-1.00" shape="5285.993614,2175.295063 5291.082438,2171.972556 5297.380858,2168.170642 5286.027858,2151.528700 5274.502046,2159.859385 5285.993614,2175.295063"/>
    <poly id="235220582" type="building" color="255,230,230" fill="1" layer="-1.00" shape="5297.776409,2167.641628 5303.730993,2164.147571 5292.617477,2147.784056 5286.551434,2151.410289 5297.776409,2167.641628"/>
    <poly id="235220687" type="building" color="255,230,230" fill="1" layer="-1.00" shape="5311.540025,2158.417415 5302.468405,2143.451557 5294.829247,2147.798471 5304.553844,2162.846105 5311.540025,2158.417415"/>
    <poly id="235220688" type="building" color="255,230,230" fill="1" layer="-1.00" shape="5273.645239,2158.657720 5282.279153,2152.855399 5273.432328,2140.416087 5264.478286,2145.972682 5273.645239,2158.657720"/>
    <poly id="235332044" type="commercial" color="209,209,204" fill="1" layer="-3.00" shape="5239.950043,2566.789402 5239.887563,2576.379802 5464.612478,2489.158422 5457.736417,2435.179044 5436.059357,2433.830335 5380.099447,2329.195495 5374.294226,2294.393711 5339.645614,2248.627985 5210.138472,2334.079109 5212.702194,2347.972568 5233.416666,2460.074038 5234.295103,2510.425954 5236.512655,2540.408901 5239.203123,2561.069921 5239.950043,2566.789402"/>
    <poly id="235342819" type="commercial" color="209,209,204" fill="1" layer="-3.00" shape="5262.996621,2143.460117 5256.832882,2134.305374 5274.110330,2121.227825 5292.167141,2113.526670 5297.040872,2120.070436 5292.754793,2123.630745 5292.916175,2125.093675 5282.051897,2132.188284 5268.172973,2140.592239 5262.996621,2143.460117"/>
    <poly id="235344896" type="building" color="255,230,230" fill="1" layer="-1.00" shape="5249.395075,2120.092212 5256.696413,2130.561192 5275.277647,2117.979432 5279.227699,2115.070342 5273.398899,2105.430482 5260.908109,2112.182266 5249.395075,2120.092212"/>
    <poly id="235345069" type="building" color="255,230,230" fill="1" layer="-1.00" shape="5247.774387,2117.312947 5258.467747,2110.217196 5245.005806,2090.106208 5233.342581,2096.376115 5240.311096,2107.009040 5247.774387,2117.312947"/>
    <poly id="235345443" type="building" color="255,230,230" fill="1" layer="-1.00" shape="5247.141413,2089.466704 5260.110729,2109.574486 5271.120476,2103.300343 5257.827916,2081.883615 5247.141413,2089.466704"/>
    <poly id="235346246" type="building" color="255,230,230" fill="1" layer="-1.00" shape="5281.183878,2115.736505 5274.058728,2104.460197 5279.320001,2100.906237 5286.774749,2112.516941 5281.183878,2115.736505"/>
    <poly id="235346478" type="building" color="255,230,230" fill="1" layer="-1.00" shape="5273.571445,2103.637484 5278.832646,2100.094598 5273.002828,2090.609780 5267.734193,2095.293327 5273.571445,2103.637484"/>
    <poly id="235346597" type="building" color="255,230,230" fill="1" layer="-1.00" shape="5267.090238,2093.827254 5258.821677,2080.583260 5263.925200,2076.552048 5272.019674,2090.282203 5267.090238,2093.827254"/>