<?xml version="1.0" encoding="UTF-8"?>
<!-- generated on 2019-04-08 00:31:51.581665 by $Id$
  options: -n test.net.xml -e 200 -r test.rou.xml
-->
<routes xmlns:xsi="http://www.w3.org/2001/XMLSchema-instance" xsi:noNamespaceSchemaLocation="http://sumo.dlr.de/xsd/routes_file.xsd">
    <trip id="0" depart="0.00" from="28801594" to="421428184#0"/>
    <trip id="1" depart="1.00" from="-28800046" to="-28801443#6"/>
    <trip id="2" depart="2.00" from="-472039798" to="131765643#17"/>
    <trip id="3" depart="3.00" from="28801513#1" to="28786733#5"/>
    <trip id="4" depart="4.00" from="28800697#7" to="28786078#7"/>
    <trip id="5" depart="5.00" from="-28801508#3" to="28801513#2"/>
    <trip id="6" depart="6.00" from="-421426726#0" to="421428184#0"/>
    <trip id="7" depart="7.00" from="28801647#0" to="472040958#3"/>
    <trip id="8" depart="8.00" from="102119729#8" to="478821996"/>
    <trip id="9" depart="9.00" from="-197961406#1" to="28800697#11"/>
    <trip id="10" depart="10.00" from="-193783816#1" to="28801020#1"/>
    <trip id="11" depart="11.00" from="-28801483#2" to="28801611"/>
    <trip id="12" depart="12.00" from="28800023#2" to="-28801405#4"/>
    <trip id="13" depart="13.00" from="28701466#6" to="-28800028#2"/>
    <trip id="14" depart="14.00" from="-28801404#6" to="-28791832#3"/>
    <trip id="15" depart="15.00" from="28800073#1" to="-28801508#3"/>
    <trip id="16" depart="16.00" from="-28801404#6" to="-627600383#3"/>
    <trip id="17" depart="17.00" from="-472040963" to="28799999#3"/>
    <trip id="18" depart="18.00" from="28783622#4" to="-28789844#6"/>
    <trip id="19" depart="19.00" from="-422160340" to="-421426727#3"/>
    <trip id="20" depart="20.00" from="-202995375#1" to="-28789844#2"/>
    <trip id="21" depart="21.00" from="-102119729#5" to="421426727#1"/>
    <trip id="22" depart="22.00" from="627606597#1" to="28803607#6"/>
    <trip id="23" depart="23.00" from="-28800697#11" to="102119729#4"/>
    <trip id="24" depart="24.00" from="28801577#3" to="498228422#2"/>
    <trip id="25" depart="25.00" from="28800866#3" to="28786733#8"/>
    <trip id="26" depart="26.00" from="-28803632#1" to="28800656#7"/>
    <trip id="27" depart="27.00" from="-28701466#0" to="472040166#2"/>
    <trip id="28" depart="28.00" from="135461185#7" to="-28791697#0"/>
    <trip id="29" depart="29.00" from="131765643#11" to="131765643#4"/>
    <trip id="30" depart="30.00" from="627606597#1" to="28801714#6"/>
    <trip id="31" depart="31.00" from="-28801714#0" to="627600383#4"/>
    <trip id="32" depart="32.00" from="-628138884#5" to="472039478"/>
    <trip id="33" depart="33.00" from="131765643#14" to="28783631#1"/>
    <trip id="34" depart="34.00" from="193783816#11" to="627606598#0"/>
    <trip id="35" depart="35.00" from="28800991#6" to="131765643#5"/>
    <trip id="36" depart="36.00" from="-28801714#2" to="-28801577#1"/>
    <trip id="37" depart="37.00" from="28801513#6" to="28791832#11"/>
    <trip id="38" depart="38.00" from="28786078#4" to="28801605"/>
    <trip id="39" depart="39.00" from="423409627#4" to="28803632#5"/>
    <trip id="40" depart="40.00" from="135461185#6" to="28785181#3"/>
    <trip id="41" depart="41.00" from="28800976#1" to="421426778#1"/>
    <trip id="42" depart="42.00" from="-28801655#0" to="-28803632#2"/>
    <trip id="43" depart="43.00" from="-28783578#12" to="-28801510#2"/>
    <trip id="44" depart="44.00" from="28786745#4" to="498228422#1"/>
    <trip id="45" depart="45.00" from="131765643#3" to="28801571#0"/>
    <trip id="46" depart="46.00" from="-28783578#8" to="420990954#1"/>
    <trip id="47" depart="47.00" from="-135461185#9" to="421283313#1"/>
    <trip id="48" depart="48.00" from="28791788#7" to="315789821"/>
    <trip id="49" depart="49.00" from="28801443#1" to="28785007"/>
    <trip id="50" depart="50.00" from="-28801673#0" to="28800656#2"/>
    <trip id="51" depart="51.00" from="-28801818" to="-28783578#9"/>
    <trip id="52" depart="52.00" from="421426716" to="-28701468#3"/>
    <trip id="53" depart="53.00" from="-28786723#1" to="28801979#2"/>
    <trip id="54" depart="54.00" from="421426778#0" to="28701466#7"/>
    <trip id="55" depart="55.00" from="-472040167#1" to="-28801717#0"/>
    <trip id="56" depart="56.00" from="-28801601#5" to="28801555#1"/>
    <trip id="57" depart="57.00" from="28783631#6" to="-197963881#1"/>
    <trip id="58" depart="58.00" from="-28800028#2" to="28800701#2"/>
    <trip id="59" depart="59.00" from="-423622060" to="28801647#5"/>
    <trip id="60" depart="60.00" from="28803628#3" to="28791832#12"/>
    <trip id="61" depart="61.00" from="-421426726#0" to="28803649#2"/>
    <trip id="62" depart="62.00" from="472039808#1" to="28801715#0"/>
    <trip id="63" depart="63.00" from="-193783816#8" to="-28801816#1"/>
    <trip id="64" depart="64.00" from="28800697#11" to="-628138884#2"/>
    <trip id="65" depart="65.00" from="-28801577#0" to="-28801577#2"/>
    <trip id="66" depart="66.00" from="-28801808" to="28800988#9"/>
    <trip id="67" depart="67.00" from="28800028#2" to="-628136948#1"/>
    <trip id="68" depart="68.00" from="628136948#1" to="-422785999#0"/>
    <trip id="69" depart="69.00" from="28803607#0" to="-28785343#3"/>
    <trip id="70" depart="70.00" from="-421426372" to="421290166"/>
    <trip id="71" depart="71.00" from="-28801532#3" to="28701466#1"/>
    <trip id="72" depart="72.00" from="-28800697#3" to="-28791827"/>
    <trip id="73" depart="73.00" from="28786078#4" to="-28801792#1"/>
    <trip id="74" depart="74.00" from="-621496601#0" to="-28801508#4"/>
    <trip id="75" depart="75.00" from="28800697#2" to="421290162#1"/>
    <trip id="76" depart="76.00" from="-28800656#0" to="-423409627#0"/>
    <trip id="77" depart="77.00" from="-28801510#4" to="-28801513#5"/>
    <trip id="78" depart="78.00" from="28783631#7" to="-28803607#4"/>
    <trip id="79" depart="79.00" from="-28801601#2" to="28800011#2"/>
    <trip id="80" depart="80.00" from="-202995375#0" to="28801994#2"/>
    <trip id="81" depart="81.00" from="-421426375#2" to="-28791788#2"/>
    <trip id="82" depart="82.00" from="-28801703#1" to="28791498#1"/>
    <trip id="83" depart="83.00" from="135461185#2" to="28801405#1"/>
    <trip id="84" depart="84.00" from="135461185#0" to="-197961405"/>
    <trip id="85" depart="85.00" from="-28801587#4" to="-28801552#1"/>
    <trip id="86" depart="86.00" from="28791832#6" to="-421426723#1"/>
    <trip id="87" depart="87.00" from="-28791695#3" to="-28791695#3"/>
    <trip id="88" depart="88.00" from="-28800656#3" to="628138884#10"/>
    <trip id="89" depart="89.00" from="28800011#0" to="421280767#1"/>
    <trip id="90" depart="90.00" from="-420990954#0" to="28801601#0"/>
    <trip id="91" depart="91.00" from="-197961406#1" to="-28801839"/>
    <trip id="92" depart="92.00" from="-472040167#0" to="28783631#0"/>
    <trip id="93" depart="93.00" from="421426375#1" to="472040170#2"/>
    <trip id="94" depart="94.00" from="-135461185#2" to="28800866#4"/>
    <trip id="95" depart="95.00" from="-628136948#1" to="-627606603"/>
    <trip id="96" depart="96.00" from="-28800821#1" to="421426372"/>
    <trip id="97" depart="97.00" from="-28801571#2" to="421287673"/>
    <trip id="98" depart="98.00" from="-28800697#8" to="-28801513#7"/>
    <trip id="99" depart="99.00" from="28801508#1" to="28800641#5"/>
    <trip id="100" depart="100.00" from="28791785#1" to="28785002#4"/>
    <trip id="101" depart="101.00" from="28800697#6" to="421280765"/>
    <trip id="102" depart="102.00" from="-421462055#6" to="-197992365#2"/>
    <trip id="103" depart="103.00" from="-628138883#3" to="472039483"/>
    <trip id="104" depart="104.00" from="-28800991#4" to="28783544#2"/>
    <trip id="105" depart="105.00" from="421426375#0" to="421426728#4"/>
    <trip id="106" depart="106.00" from="28785043#0" to="-28801587#1"/>
    <trip id="107" depart="107.00" from="-621496601#1" to="421426783#0"/>
    <trip id="108" depart="108.00" from="-421426360" to="-422803605#2"/>
    <trip id="109" depart="109.00" from="28801022#9" to="28786733#10"/>
    <trip id="110" depart="110.00" from="-422141042" to="202995382#0"/>
    <trip id="111" depart="111.00" from="-422803597" to="421426782#1"/>
    <trip id="112" depart="112.00" from="28803628#0" to="-28789844#6"/>
    <trip id="113" depart="113.00" from="-28801513#4" to="-423054885"/>
    <trip id="114" depart="114.00" from="421280772#1" to="472040960#0"/>
    <trip id="115" depart="115.00" from="-28801979#1" to="28789844#1"/>
    <trip id="116" depart="116.00" from="-421290162#1" to="28800821#1"/>
    <trip id="117" depart="117.00" from="28800202#1" to="-28786723#3"/>
    <trip id="118" depart="118.00" from="28786078#8" to="28785343#3"/>
    <trip id="119" depart="119.00" from="28785043#2" to="131765643#2"/>
    <trip id="120" depart="120.00" from="-28801647#0" to="-498228243#0"/>
    <trip id="121" depart="121.00" from="28801577#5" to="28801508#1"/>
    <trip id="122" depart="122.00" from="-28791785#2" to="28801403#2"/>
    <trip id="123" depart="123.00" from="421426712#0" to="28786078#2"/>
    <trip id="124" depart="124.00" from="627606612#0" to="-472040968#2"/>
    <trip id="125" depart="125.00" from="-28791832#8" to="-28800213"/>
    <trip id="126" depart="126.00" from="-472040167#0" to="-28801405#3"/>
    <trip id="127" depart="127.00" from="-28801547#1" to="28801020#0"/>
    <trip id="128" depart="128.00" from="472040167#2" to="28786733#6"/>
    <trip id="129" depart="129.00" from="-28801555#0" to="-28804075#2"/>
    <trip id="130" depart="130.00" from="-421280770" to="28800641#2"/>
    <trip id="131" depart="131.00" from="472040958#2" to="-421426717"/>
    <trip id="132" depart="132.00" from="-28801404#1" to="421462055#6"/>
    <trip id="133" depart="133.00" from="422160356#0" to="-28801024#3"/>
    <trip id="134" depart="134.00" from="-28783622#5" to="-28791712"/>
    <trip id="135" depart="135.00" from="197961406#2" to="28783578#2"/>
    <trip id="136" depart="136.00" from="-28701468#6" to="-28800206"/>
    <trip id="137" depart="137.00" from="-28801513#1" to="627606600#0"/>
    <trip id="138" depart="138.00" from="28801540" to="-28803607#1"/>
    <trip id="139" depart="139.00" from="-28801779" to="235362194#1"/>
    <trip id="140" depart="140.00" from="28800988#8" to="-28783631#1"/>
    <trip id="141" depart="141.00" from="-28800165#2" to="-135461185#8"/>
    <trip id="142" depart="142.00" from="-422160356#2" to="28801022#12"/>
    <trip id="143" depart="143.00" from="-131765643#1" to="-28791788#3"/>
    <trip id="144" depart="144.00" from="-193783816#7" to="-28801876#0"/>
    <trip id="145" depart="145.00" from="-423622056#1" to="28801405#3"/>
    <trip id="146" depart="146.00" from="135461185#2" to="28803632#1"/>
    <trip id="147" depart="147.00" from="28801643#1" to="28800641#9"/>
    <trip id="148" depart="148.00" from="-28800023#4" to="-627606601"/>
    <trip id="149" depart="149.00" from="28801601#1" to="-628138883#2"/>
    <trip id="150" depart="150.00" from="-28799999#7" to="28800007#2"/>
    <trip id="151" depart="151.00" from="-621748630" to="-135461185#3"/>
    <trip id="152" depart="152.00" from="28803632#4" to="197961406#1"/>
    <trip id="153" depart="153.00" from="28800988#3" to="423622067"/>
    <trip id="154" depart="154.00" from="-28800991#4" to="28801714#1"/>
    <trip id="155" depart="155.00" from="28801979#7" to="131765643#4"/>
    <trip id="156" depart="156.00" from="235331854#2" to="-28801405#0"/>
    <trip id="157" depart="157.00" from="-28803607#8" to="28801404#6"/>
    <trip id="158" depart="158.00" from="-422785998#0" to="28791695#1"/>
    <trip id="159" depart="159.00" from="-28785133#1" to="-421283313#1"/>
    <trip id="160" depart="160.00" from="-28791498#7" to="421426712#0"/>
    <trip id="161" depart="161.00" from="498228368#0" to="-421283313#2"/>
    <trip id="162" depart="162.00" from="421462055#2" to="203680503#2"/>
    <trip id="163" depart="163.00" from="28800073#1" to="-627606602"/>
    <trip id="164" depart="164.00" from="-28801024#5" to="28801532#1"/>
    <trip id="165" depart="165.00" from="28800988#7" to="-28801587#0"/>
    <trip id="166" depart="166.00" from="28801716#0" to="28800011#0"/>
    <trip id="167" depart="167.00" from="-472039799" to="-28701466#2"/>
    <trip id="168" depart="168.00" from="28701468#3" to="621496602"/>
    <trip id="169" depart="169.00" from="-472039487" to="-28801601#5"/>
    <trip id="170" depart="170.00" from="131765643#11" to="28801876#1"/>
    <trip id="171" depart="171.00" from="28800697#1" to="-28786733#6"/>
    <trip id="172" depart="172.00" from="421426726#0" to="-28801513#0"/>
    <trip id="173" depart="173.00" from="421426727#0" to="-28801549#1"/>
    <trip id="174" depart="174.00" from="-421426365" to="-28801717#0"/>
    <trip id="175" depart="175.00" from="-135461185#1" to="422160338"/>
    <trip id="176" depart="176.00" from="628138884#2" to="-28800018#5"/>
    <trip id="177" depart="177.00" from="472040961" to="28803632#3"/>
    <trip id="178" depart="178.00" from="28801715#0" to="-28803607#8"/>
    <trip id="179" depart="179.00" from="-498228908#0" to="472039479"/>
    <trip id="180" depart="180.00" from="-421290158" to="28783622#5"/>
    <trip id="181" depart="181.00" from="28791695#2" to="-628138883#1"/>
    <trip id="182" depart="182.00" from="131765643#7" to="-28791832#5"/>
    <trip id="183" depart="183.00" from="28801513#7" to="-627600383#3"/>
    <trip id="184" depart="184.00" from="-28785043#4" to="28791832#9"/>
    <trip id="185" depart="185.00" from="28800991#2" to="-421426723#1"/>
    <trip id="186" depart="186.00" from="28701464#2" to="-28801647#0"/>
    <trip id="187" depart="187.00" from="28801443#4" to="-28801577#5"/>
    <trip id="188" depart="188.00" from="28791788#5" to="28801508#0"/>
    <trip id="189" depart="189.00" from="-28801609#0" to="421426728#6"/>
    <trip id="190" depart="190.00" from="-197961406#1" to="131765643#11"/>
    <trip id="191" depart="191.00" from="423622085#0" to="28801404#6"/>
    <trip id="192" depart="192.00" from="-28801609#1" to="28791788#4"/>
    <trip id="193" depart="193.00" from="-28791711" to="-422380847#0"/>
    <trip id="194" depart="194.00" from="28801716#0" to="-28786078#12"/>
    <trip id="195" depart="195.00" from="-28801405#1" to="28801513#0"/>
    <trip id="196" depart="196.00" from="-422380851" to="28801816#1"/>
    <trip id="197" depart="197.00" from="-423054889#1" to="-28783631#0"/>
    <trip id="198" depart="198.00" from="-28801577#1" to="-28799999#2"/>
    <trip id="199" depart="199.00" from="-421426362" to="-28801022#1"/>
</routes>
